<?xml version="1.0" encoding="UTF-8"?>

<!-- generated on 2021-11-01 08:43:35 by Eclipse SUMO duarouter Version 1.10.0
<configuration xmlns:xsi="http://www.w3.org/2001/XMLSchema-instance" xsi:noNamespaceSchemaLocation="http://sumo.dlr.de/xsd/duarouterConfiguration.xsd">

    <input>
        <net-file value="phunhuan.net.xml"/>
        <route-files value="flows.xml"/>
    </input>

    <output>
        <output-file value="phunhuan.rou.xml"/>
        <alternatives-output value="phunhuan.rou.alt.xml"/>
    </output>

</configuration>
-->

<routes xmlns:xsi="http://www.w3.org/2001/XMLSchema-instance" xsi:noNamespaceSchemaLocation="http://sumo.dlr.de/xsd/routes_file.xsd">
    <vehicle id="1.0" depart="0.00" color="red">
        <route edges="615787306#8 615787306#9 32577828#0 32577828#1"/>
    </vehicle>
    <vehicle id="2.0" depart="0.00" color="yellow">
        <route edges="817909960#5 -817085858 32577828#0 32577828#1"/>
    </vehicle>
    <vehicle id="3.0" depart="0.00" color="green">
        <route edges="409101012#5 -817085858 32577828#0 32577828#1"/>
    </vehicle>
    <vehicle id="1.1" depart="7.20" color="red">
        <route edges="615787306#8 615787306#9 32577828#0 32577828#1"/>
    </vehicle>
    <vehicle id="2.1" depart="7.20" color="yellow">
        <route edges="817909960#5 -817085858 32577828#0 32577828#1"/>
    </vehicle>
    <vehicle id="3.1" depart="7.20" color="green">
        <route edges="409101012#5 -817085858 32577828#0 32577828#1"/>
    </vehicle>
    <vehicle id="1.2" depart="14.40" color="red">
        <route edges="615787306#8 615787306#9 32577828#0 32577828#1"/>
    </vehicle>
    <vehicle id="2.2" depart="14.40" color="yellow">
        <route edges="817909960#5 -817085858 32577828#0 32577828#1"/>
    </vehicle>
    <vehicle id="3.2" depart="14.40" color="green">
        <route edges="409101012#5 -817085858 32577828#0 32577828#1"/>
    </vehicle>
    <vehicle id="1.3" depart="21.60" color="red">
        <route edges="615787306#8 615787306#9 32577828#0 32577828#1"/>
    </vehicle>
    <vehicle id="2.3" depart="21.60" color="yellow">
        <route edges="817909960#5 -817085858 32577828#0 32577828#1"/>
    </vehicle>
    <vehicle id="3.3" depart="21.60" color="green">
        <route edges="409101012#5 -817085858 32577828#0 32577828#1"/>
    </vehicle>
    <vehicle id="1.4" depart="28.80" color="red">
        <route edges="615787306#8 615787306#9 32577828#0 32577828#1"/>
    </vehicle>
    <vehicle id="2.4" depart="28.80" color="yellow">
        <route edges="817909960#5 -817085858 32577828#0 32577828#1"/>
    </vehicle>
    <vehicle id="3.4" depart="28.80" color="green">
        <route edges="409101012#5 -817085858 32577828#0 32577828#1"/>
    </vehicle>
    <vehicle id="1.5" depart="36.00" color="red">
        <route edges="615787306#8 615787306#9 32577828#0 32577828#1"/>
    </vehicle>
    <vehicle id="2.5" depart="36.00" color="yellow">
        <route edges="817909960#5 -817085858 32577828#0 32577828#1"/>
    </vehicle>
    <vehicle id="3.5" depart="36.00" color="green">
        <route edges="409101012#5 -817085858 32577828#0 32577828#1"/>
    </vehicle>
    <vehicle id="1.6" depart="43.20" color="red">
        <route edges="615787306#8 615787306#9 32577828#0 32577828#1"/>
    </vehicle>
    <vehicle id="2.6" depart="43.20" color="yellow">
        <route edges="817909960#5 -817085858 32577828#0 32577828#1"/>
    </vehicle>
    <vehicle id="3.6" depart="43.20" color="green">
        <route edges="409101012#5 -817085858 32577828#0 32577828#1"/>
    </vehicle>
    <vehicle id="1.7" depart="50.40" color="red">
        <route edges="615787306#8 615787306#9 32577828#0 32577828#1"/>
    </vehicle>
    <vehicle id="2.7" depart="50.40" color="yellow">
        <route edges="817909960#5 -817085858 32577828#0 32577828#1"/>
    </vehicle>
    <vehicle id="3.7" depart="50.40" color="green">
        <route edges="409101012#5 -817085858 32577828#0 32577828#1"/>
    </vehicle>
    <vehicle id="1.8" depart="57.60" color="red">
        <route edges="615787306#8 615787306#9 32577828#0 32577828#1"/>
    </vehicle>
    <vehicle id="2.8" depart="57.60" color="yellow">
        <route edges="817909960#5 -817085858 32577828#0 32577828#1"/>
    </vehicle>
    <vehicle id="3.8" depart="57.60" color="green">
        <route edges="409101012#5 -817085858 32577828#0 32577828#1"/>
    </vehicle>
    <vehicle id="1.9" depart="64.80" color="red">
        <route edges="615787306#8 615787306#9 32577828#0 32577828#1"/>
    </vehicle>
    <vehicle id="2.9" depart="64.80" color="yellow">
        <route edges="817909960#5 -817085858 32577828#0 32577828#1"/>
    </vehicle>
    <vehicle id="3.9" depart="64.80" color="green">
        <route edges="409101012#5 -817085858 32577828#0 32577828#1"/>
    </vehicle>
    <vehicle id="1.10" depart="72.00" color="red">
        <route edges="615787306#8 615787306#9 32577828#0 32577828#1"/>
    </vehicle>
    <vehicle id="2.10" depart="72.00" color="yellow">
        <route edges="817909960#5 -817085858 32577828#0 32577828#1"/>
    </vehicle>
    <vehicle id="3.10" depart="72.00" color="green">
        <route edges="409101012#5 -817085858 32577828#0 32577828#1"/>
    </vehicle>
    <vehicle id="1.11" depart="79.20" color="red">
        <route edges="615787306#8 615787306#9 32577828#0 32577828#1"/>
    </vehicle>
    <vehicle id="2.11" depart="79.20" color="yellow">
        <route edges="817909960#5 -817085858 32577828#0 32577828#1"/>
    </vehicle>
    <vehicle id="3.11" depart="79.20" color="green">
        <route edges="409101012#5 -817085858 32577828#0 32577828#1"/>
    </vehicle>
    <vehicle id="1.12" depart="86.40" color="red">
        <route edges="615787306#8 615787306#9 32577828#0 32577828#1"/>
    </vehicle>
    <vehicle id="2.12" depart="86.40" color="yellow">
        <route edges="817909960#5 -817085858 32577828#0 32577828#1"/>
    </vehicle>
    <vehicle id="3.12" depart="86.40" color="green">
        <route edges="409101012#5 -817085858 32577828#0 32577828#1"/>
    </vehicle>
    <vehicle id="1.13" depart="93.60" color="red">
        <route edges="615787306#8 615787306#9 32577828#0 32577828#1"/>
    </vehicle>
    <vehicle id="2.13" depart="93.60" color="yellow">
        <route edges="817909960#5 -817085858 32577828#0 32577828#1"/>
    </vehicle>
    <vehicle id="3.13" depart="93.60" color="green">
        <route edges="409101012#5 -817085858 32577828#0 32577828#1"/>
    </vehicle>
    <vehicle id="1.14" depart="100.80" color="red">
        <route edges="615787306#8 615787306#9 32577828#0 32577828#1"/>
    </vehicle>
    <vehicle id="2.14" depart="100.80" color="yellow">
        <route edges="817909960#5 -817085858 32577828#0 32577828#1"/>
    </vehicle>
    <vehicle id="3.14" depart="100.80" color="green">
        <route edges="409101012#5 -817085858 32577828#0 32577828#1"/>
    </vehicle>
    <vehicle id="1.15" depart="108.00" color="red">
        <route edges="615787306#8 615787306#9 32577828#0 32577828#1"/>
    </vehicle>
    <vehicle id="2.15" depart="108.00" color="yellow">
        <route edges="817909960#5 -817085858 32577828#0 32577828#1"/>
    </vehicle>
    <vehicle id="3.15" depart="108.00" color="green">
        <route edges="409101012#5 -817085858 32577828#0 32577828#1"/>
    </vehicle>
    <vehicle id="1.16" depart="115.20" color="red">
        <route edges="615787306#8 615787306#9 32577828#0 32577828#1"/>
    </vehicle>
    <vehicle id="2.16" depart="115.20" color="yellow">
        <route edges="817909960#5 -817085858 32577828#0 32577828#1"/>
    </vehicle>
    <vehicle id="3.16" depart="115.20" color="green">
        <route edges="409101012#5 -817085858 32577828#0 32577828#1"/>
    </vehicle>
    <vehicle id="1.17" depart="122.40" color="red">
        <route edges="615787306#8 615787306#9 32577828#0 32577828#1"/>
    </vehicle>
    <vehicle id="2.17" depart="122.40" color="yellow">
        <route edges="817909960#5 -817085858 32577828#0 32577828#1"/>
    </vehicle>
    <vehicle id="3.17" depart="122.40" color="green">
        <route edges="409101012#5 -817085858 32577828#0 32577828#1"/>
    </vehicle>
    <vehicle id="1.18" depart="129.60" color="red">
        <route edges="615787306#8 615787306#9 32577828#0 32577828#1"/>
    </vehicle>
    <vehicle id="2.18" depart="129.60" color="yellow">
        <route edges="817909960#5 -817085858 32577828#0 32577828#1"/>
    </vehicle>
    <vehicle id="3.18" depart="129.60" color="green">
        <route edges="409101012#5 -817085858 32577828#0 32577828#1"/>
    </vehicle>
    <vehicle id="1.19" depart="136.80" color="red">
        <route edges="615787306#8 615787306#9 32577828#0 32577828#1"/>
    </vehicle>
    <vehicle id="2.19" depart="136.80" color="yellow">
        <route edges="817909960#5 -817085858 32577828#0 32577828#1"/>
    </vehicle>
    <vehicle id="3.19" depart="136.80" color="green">
        <route edges="409101012#5 -817085858 32577828#0 32577828#1"/>
    </vehicle>
    <vehicle id="1.20" depart="144.00" color="red">
        <route edges="615787306#8 615787306#9 32577828#0 32577828#1"/>
    </vehicle>
    <vehicle id="2.20" depart="144.00" color="yellow">
        <route edges="817909960#5 -817085858 32577828#0 32577828#1"/>
    </vehicle>
    <vehicle id="3.20" depart="144.00" color="green">
        <route edges="409101012#5 -817085858 32577828#0 32577828#1"/>
    </vehicle>
    <vehicle id="1.21" depart="151.20" color="red">
        <route edges="615787306#8 615787306#9 32577828#0 32577828#1"/>
    </vehicle>
    <vehicle id="2.21" depart="151.20" color="yellow">
        <route edges="817909960#5 -817085858 32577828#0 32577828#1"/>
    </vehicle>
    <vehicle id="3.21" depart="151.20" color="green">
        <route edges="409101012#5 -817085858 32577828#0 32577828#1"/>
    </vehicle>
    <vehicle id="1.22" depart="158.40" color="red">
        <route edges="615787306#8 615787306#9 32577828#0 32577828#1"/>
    </vehicle>
    <vehicle id="2.22" depart="158.40" color="yellow">
        <route edges="817909960#5 -817085858 32577828#0 32577828#1"/>
    </vehicle>
    <vehicle id="3.22" depart="158.40" color="green">
        <route edges="409101012#5 -817085858 32577828#0 32577828#1"/>
    </vehicle>
    <vehicle id="1.23" depart="165.60" color="red">
        <route edges="615787306#8 615787306#9 32577828#0 32577828#1"/>
    </vehicle>
    <vehicle id="2.23" depart="165.60" color="yellow">
        <route edges="817909960#5 -817085858 32577828#0 32577828#1"/>
    </vehicle>
    <vehicle id="3.23" depart="165.60" color="green">
        <route edges="409101012#5 -817085858 32577828#0 32577828#1"/>
    </vehicle>
    <vehicle id="1.24" depart="172.80" color="red">
        <route edges="615787306#8 615787306#9 32577828#0 32577828#1"/>
    </vehicle>
    <vehicle id="2.24" depart="172.80" color="yellow">
        <route edges="817909960#5 -817085858 32577828#0 32577828#1"/>
    </vehicle>
    <vehicle id="3.24" depart="172.80" color="green">
        <route edges="409101012#5 -817085858 32577828#0 32577828#1"/>
    </vehicle>
    <vehicle id="1.25" depart="180.00" color="red">
        <route edges="615787306#8 615787306#9 32577828#0 32577828#1"/>
    </vehicle>
    <vehicle id="2.25" depart="180.00" color="yellow">
        <route edges="817909960#5 -817085858 32577828#0 32577828#1"/>
    </vehicle>
    <vehicle id="3.25" depart="180.00" color="green">
        <route edges="409101012#5 -817085858 32577828#0 32577828#1"/>
    </vehicle>
    <vehicle id="1.26" depart="187.20" color="red">
        <route edges="615787306#8 615787306#9 32577828#0 32577828#1"/>
    </vehicle>
    <vehicle id="2.26" depart="187.20" color="yellow">
        <route edges="817909960#5 -817085858 32577828#0 32577828#1"/>
    </vehicle>
    <vehicle id="3.26" depart="187.20" color="green">
        <route edges="409101012#5 -817085858 32577828#0 32577828#1"/>
    </vehicle>
    <vehicle id="1.27" depart="194.40" color="red">
        <route edges="615787306#8 615787306#9 32577828#0 32577828#1"/>
    </vehicle>
    <vehicle id="2.27" depart="194.40" color="yellow">
        <route edges="817909960#5 -817085858 32577828#0 32577828#1"/>
    </vehicle>
    <vehicle id="3.27" depart="194.40" color="green">
        <route edges="409101012#5 -817085858 32577828#0 32577828#1"/>
    </vehicle>
    <vehicle id="1.28" depart="201.60" color="red">
        <route edges="615787306#8 615787306#9 32577828#0 32577828#1"/>
    </vehicle>
    <vehicle id="2.28" depart="201.60" color="yellow">
        <route edges="817909960#5 -817085858 32577828#0 32577828#1"/>
    </vehicle>
    <vehicle id="3.28" depart="201.60" color="green">
        <route edges="409101012#5 -817085858 32577828#0 32577828#1"/>
    </vehicle>
    <vehicle id="1.29" depart="208.80" color="red">
        <route edges="615787306#8 615787306#9 32577828#0 32577828#1"/>
    </vehicle>
    <vehicle id="2.29" depart="208.80" color="yellow">
        <route edges="817909960#5 -817085858 32577828#0 32577828#1"/>
    </vehicle>
    <vehicle id="3.29" depart="208.80" color="green">
        <route edges="409101012#5 -817085858 32577828#0 32577828#1"/>
    </vehicle>
    <vehicle id="1.30" depart="216.00" color="red">
        <route edges="615787306#8 615787306#9 32577828#0 32577828#1"/>
    </vehicle>
    <vehicle id="2.30" depart="216.00" color="yellow">
        <route edges="817909960#5 -817085858 32577828#0 32577828#1"/>
    </vehicle>
    <vehicle id="3.30" depart="216.00" color="green">
        <route edges="409101012#5 -817085858 32577828#0 32577828#1"/>
    </vehicle>
    <vehicle id="1.31" depart="223.20" color="red">
        <route edges="615787306#8 615787306#9 32577828#0 32577828#1"/>
    </vehicle>
    <vehicle id="2.31" depart="223.20" color="yellow">
        <route edges="817909960#5 -817085858 32577828#0 32577828#1"/>
    </vehicle>
    <vehicle id="3.31" depart="223.20" color="green">
        <route edges="409101012#5 -817085858 32577828#0 32577828#1"/>
    </vehicle>
    <vehicle id="1.32" depart="230.40" color="red">
        <route edges="615787306#8 615787306#9 32577828#0 32577828#1"/>
    </vehicle>
    <vehicle id="2.32" depart="230.40" color="yellow">
        <route edges="817909960#5 -817085858 32577828#0 32577828#1"/>
    </vehicle>
    <vehicle id="3.32" depart="230.40" color="green">
        <route edges="409101012#5 -817085858 32577828#0 32577828#1"/>
    </vehicle>
    <vehicle id="1.33" depart="237.60" color="red">
        <route edges="615787306#8 615787306#9 32577828#0 32577828#1"/>
    </vehicle>
    <vehicle id="2.33" depart="237.60" color="yellow">
        <route edges="817909960#5 -817085858 32577828#0 32577828#1"/>
    </vehicle>
    <vehicle id="3.33" depart="237.60" color="green">
        <route edges="409101012#5 -817085858 32577828#0 32577828#1"/>
    </vehicle>
    <vehicle id="1.34" depart="244.80" color="red">
        <route edges="615787306#8 615787306#9 32577828#0 32577828#1"/>
    </vehicle>
    <vehicle id="2.34" depart="244.80" color="yellow">
        <route edges="817909960#5 -817085858 32577828#0 32577828#1"/>
    </vehicle>
    <vehicle id="3.34" depart="244.80" color="green">
        <route edges="409101012#5 -817085858 32577828#0 32577828#1"/>
    </vehicle>
    <vehicle id="1.35" depart="252.00" color="red">
        <route edges="615787306#8 615787306#9 32577828#0 32577828#1"/>
    </vehicle>
    <vehicle id="2.35" depart="252.00" color="yellow">
        <route edges="817909960#5 -817085858 32577828#0 32577828#1"/>
    </vehicle>
    <vehicle id="3.35" depart="252.00" color="green">
        <route edges="409101012#5 -817085858 32577828#0 32577828#1"/>
    </vehicle>
    <vehicle id="1.36" depart="259.20" color="red">
        <route edges="615787306#8 615787306#9 32577828#0 32577828#1"/>
    </vehicle>
    <vehicle id="2.36" depart="259.20" color="yellow">
        <route edges="817909960#5 -817085858 32577828#0 32577828#1"/>
    </vehicle>
    <vehicle id="3.36" depart="259.20" color="green">
        <route edges="409101012#5 -817085858 32577828#0 32577828#1"/>
    </vehicle>
    <vehicle id="1.37" depart="266.40" color="red">
        <route edges="615787306#8 615787306#9 32577828#0 32577828#1"/>
    </vehicle>
    <vehicle id="2.37" depart="266.40" color="yellow">
        <route edges="817909960#5 -817085858 32577828#0 32577828#1"/>
    </vehicle>
    <vehicle id="3.37" depart="266.40" color="green">
        <route edges="409101012#5 -817085858 32577828#0 32577828#1"/>
    </vehicle>
    <vehicle id="1.38" depart="273.60" color="red">
        <route edges="615787306#8 615787306#9 32577828#0 32577828#1"/>
    </vehicle>
    <vehicle id="2.38" depart="273.60" color="yellow">
        <route edges="817909960#5 -817085858 32577828#0 32577828#1"/>
    </vehicle>
    <vehicle id="3.38" depart="273.60" color="green">
        <route edges="409101012#5 -817085858 32577828#0 32577828#1"/>
    </vehicle>
    <vehicle id="1.39" depart="280.80" color="red">
        <route edges="615787306#8 615787306#9 32577828#0 32577828#1"/>
    </vehicle>
    <vehicle id="2.39" depart="280.80" color="yellow">
        <route edges="817909960#5 -817085858 32577828#0 32577828#1"/>
    </vehicle>
    <vehicle id="3.39" depart="280.80" color="green">
        <route edges="409101012#5 -817085858 32577828#0 32577828#1"/>
    </vehicle>
    <vehicle id="1.40" depart="288.00" color="red">
        <route edges="615787306#8 615787306#9 32577828#0 32577828#1"/>
    </vehicle>
    <vehicle id="2.40" depart="288.00" color="yellow">
        <route edges="817909960#5 -817085858 32577828#0 32577828#1"/>
    </vehicle>
    <vehicle id="3.40" depart="288.00" color="green">
        <route edges="409101012#5 -817085858 32577828#0 32577828#1"/>
    </vehicle>
    <vehicle id="1.41" depart="295.20" color="red">
        <route edges="615787306#8 615787306#9 32577828#0 32577828#1"/>
    </vehicle>
    <vehicle id="2.41" depart="295.20" color="yellow">
        <route edges="817909960#5 -817085858 32577828#0 32577828#1"/>
    </vehicle>
    <vehicle id="3.41" depart="295.20" color="green">
        <route edges="409101012#5 -817085858 32577828#0 32577828#1"/>
    </vehicle>
    <vehicle id="1.42" depart="302.40" color="red">
        <route edges="615787306#8 615787306#9 32577828#0 32577828#1"/>
    </vehicle>
    <vehicle id="2.42" depart="302.40" color="yellow">
        <route edges="817909960#5 -817085858 32577828#0 32577828#1"/>
    </vehicle>
    <vehicle id="3.42" depart="302.40" color="green">
        <route edges="409101012#5 -817085858 32577828#0 32577828#1"/>
    </vehicle>
    <vehicle id="1.43" depart="309.60" color="red">
        <route edges="615787306#8 615787306#9 32577828#0 32577828#1"/>
    </vehicle>
    <vehicle id="2.43" depart="309.60" color="yellow">
        <route edges="817909960#5 -817085858 32577828#0 32577828#1"/>
    </vehicle>
    <vehicle id="3.43" depart="309.60" color="green">
        <route edges="409101012#5 -817085858 32577828#0 32577828#1"/>
    </vehicle>
    <vehicle id="1.44" depart="316.80" color="red">
        <route edges="615787306#8 615787306#9 32577828#0 32577828#1"/>
    </vehicle>
    <vehicle id="2.44" depart="316.80" color="yellow">
        <route edges="817909960#5 -817085858 32577828#0 32577828#1"/>
    </vehicle>
    <vehicle id="3.44" depart="316.80" color="green">
        <route edges="409101012#5 -817085858 32577828#0 32577828#1"/>
    </vehicle>
    <vehicle id="1.45" depart="324.00" color="red">
        <route edges="615787306#8 615787306#9 32577828#0 32577828#1"/>
    </vehicle>
    <vehicle id="2.45" depart="324.00" color="yellow">
        <route edges="817909960#5 -817085858 32577828#0 32577828#1"/>
    </vehicle>
    <vehicle id="3.45" depart="324.00" color="green">
        <route edges="409101012#5 -817085858 32577828#0 32577828#1"/>
    </vehicle>
    <vehicle id="1.46" depart="331.20" color="red">
        <route edges="615787306#8 615787306#9 32577828#0 32577828#1"/>
    </vehicle>
    <vehicle id="2.46" depart="331.20" color="yellow">
        <route edges="817909960#5 -817085858 32577828#0 32577828#1"/>
    </vehicle>
    <vehicle id="3.46" depart="331.20" color="green">
        <route edges="409101012#5 -817085858 32577828#0 32577828#1"/>
    </vehicle>
    <vehicle id="1.47" depart="338.40" color="red">
        <route edges="615787306#8 615787306#9 32577828#0 32577828#1"/>
    </vehicle>
    <vehicle id="2.47" depart="338.40" color="yellow">
        <route edges="817909960#5 -817085858 32577828#0 32577828#1"/>
    </vehicle>
    <vehicle id="3.47" depart="338.40" color="green">
        <route edges="409101012#5 -817085858 32577828#0 32577828#1"/>
    </vehicle>
    <vehicle id="1.48" depart="345.60" color="red">
        <route edges="615787306#8 615787306#9 32577828#0 32577828#1"/>
    </vehicle>
    <vehicle id="2.48" depart="345.60" color="yellow">
        <route edges="817909960#5 -817085858 32577828#0 32577828#1"/>
    </vehicle>
    <vehicle id="3.48" depart="345.60" color="green">
        <route edges="409101012#5 -817085858 32577828#0 32577828#1"/>
    </vehicle>
    <vehicle id="1.49" depart="352.80" color="red">
        <route edges="615787306#8 615787306#9 32577828#0 32577828#1"/>
    </vehicle>
    <vehicle id="2.49" depart="352.80" color="yellow">
        <route edges="817909960#5 -817085858 32577828#0 32577828#1"/>
    </vehicle>
    <vehicle id="3.49" depart="352.80" color="green">
        <route edges="409101012#5 -817085858 32577828#0 32577828#1"/>
    </vehicle>
    <vehicle id="1.50" depart="360.00" color="red">
        <route edges="615787306#8 615787306#9 32577828#0 32577828#1"/>
    </vehicle>
    <vehicle id="2.50" depart="360.00" color="yellow">
        <route edges="817909960#5 -817085858 32577828#0 32577828#1"/>
    </vehicle>
    <vehicle id="3.50" depart="360.00" color="green">
        <route edges="409101012#5 -817085858 32577828#0 32577828#1"/>
    </vehicle>
    <vehicle id="1.51" depart="367.20" color="red">
        <route edges="615787306#8 615787306#9 32577828#0 32577828#1"/>
    </vehicle>
    <vehicle id="2.51" depart="367.20" color="yellow">
        <route edges="817909960#5 -817085858 32577828#0 32577828#1"/>
    </vehicle>
    <vehicle id="3.51" depart="367.20" color="green">
        <route edges="409101012#5 -817085858 32577828#0 32577828#1"/>
    </vehicle>
    <vehicle id="1.52" depart="374.40" color="red">
        <route edges="615787306#8 615787306#9 32577828#0 32577828#1"/>
    </vehicle>
    <vehicle id="2.52" depart="374.40" color="yellow">
        <route edges="817909960#5 -817085858 32577828#0 32577828#1"/>
    </vehicle>
    <vehicle id="3.52" depart="374.40" color="green">
        <route edges="409101012#5 -817085858 32577828#0 32577828#1"/>
    </vehicle>
    <vehicle id="1.53" depart="381.60" color="red">
        <route edges="615787306#8 615787306#9 32577828#0 32577828#1"/>
    </vehicle>
    <vehicle id="2.53" depart="381.60" color="yellow">
        <route edges="817909960#5 -817085858 32577828#0 32577828#1"/>
    </vehicle>
    <vehicle id="3.53" depart="381.60" color="green">
        <route edges="409101012#5 -817085858 32577828#0 32577828#1"/>
    </vehicle>
    <vehicle id="1.54" depart="388.80" color="red">
        <route edges="615787306#8 615787306#9 32577828#0 32577828#1"/>
    </vehicle>
    <vehicle id="2.54" depart="388.80" color="yellow">
        <route edges="817909960#5 -817085858 32577828#0 32577828#1"/>
    </vehicle>
    <vehicle id="3.54" depart="388.80" color="green">
        <route edges="409101012#5 -817085858 32577828#0 32577828#1"/>
    </vehicle>
    <vehicle id="1.55" depart="396.00" color="red">
        <route edges="615787306#8 615787306#9 32577828#0 32577828#1"/>
    </vehicle>
    <vehicle id="2.55" depart="396.00" color="yellow">
        <route edges="817909960#5 -817085858 32577828#0 32577828#1"/>
    </vehicle>
    <vehicle id="3.55" depart="396.00" color="green">
        <route edges="409101012#5 -817085858 32577828#0 32577828#1"/>
    </vehicle>
    <vehicle id="1.56" depart="403.20" color="red">
        <route edges="615787306#8 615787306#9 32577828#0 32577828#1"/>
    </vehicle>
    <vehicle id="2.56" depart="403.20" color="yellow">
        <route edges="817909960#5 -817085858 32577828#0 32577828#1"/>
    </vehicle>
    <vehicle id="3.56" depart="403.20" color="green">
        <route edges="409101012#5 -817085858 32577828#0 32577828#1"/>
    </vehicle>
    <vehicle id="1.57" depart="410.40" color="red">
        <route edges="615787306#8 615787306#9 32577828#0 32577828#1"/>
    </vehicle>
    <vehicle id="2.57" depart="410.40" color="yellow">
        <route edges="817909960#5 -817085858 32577828#0 32577828#1"/>
    </vehicle>
    <vehicle id="3.57" depart="410.40" color="green">
        <route edges="409101012#5 -817085858 32577828#0 32577828#1"/>
    </vehicle>
    <vehicle id="1.58" depart="417.60" color="red">
        <route edges="615787306#8 615787306#9 32577828#0 32577828#1"/>
    </vehicle>
    <vehicle id="2.58" depart="417.60" color="yellow">
        <route edges="817909960#5 -817085858 32577828#0 32577828#1"/>
    </vehicle>
    <vehicle id="3.58" depart="417.60" color="green">
        <route edges="409101012#5 -817085858 32577828#0 32577828#1"/>
    </vehicle>
    <vehicle id="1.59" depart="424.80" color="red">
        <route edges="615787306#8 615787306#9 32577828#0 32577828#1"/>
    </vehicle>
    <vehicle id="2.59" depart="424.80" color="yellow">
        <route edges="817909960#5 -817085858 32577828#0 32577828#1"/>
    </vehicle>
    <vehicle id="3.59" depart="424.80" color="green">
        <route edges="409101012#5 -817085858 32577828#0 32577828#1"/>
    </vehicle>
    <vehicle id="1.60" depart="432.00" color="red">
        <route edges="615787306#8 615787306#9 32577828#0 32577828#1"/>
    </vehicle>
    <vehicle id="2.60" depart="432.00" color="yellow">
        <route edges="817909960#5 -817085858 32577828#0 32577828#1"/>
    </vehicle>
    <vehicle id="3.60" depart="432.00" color="green">
        <route edges="409101012#5 -817085858 32577828#0 32577828#1"/>
    </vehicle>
    <vehicle id="1.61" depart="439.20" color="red">
        <route edges="615787306#8 615787306#9 32577828#0 32577828#1"/>
    </vehicle>
    <vehicle id="2.61" depart="439.20" color="yellow">
        <route edges="817909960#5 -817085858 32577828#0 32577828#1"/>
    </vehicle>
    <vehicle id="3.61" depart="439.20" color="green">
        <route edges="409101012#5 -817085858 32577828#0 32577828#1"/>
    </vehicle>
    <vehicle id="1.62" depart="446.40" color="red">
        <route edges="615787306#8 615787306#9 32577828#0 32577828#1"/>
    </vehicle>
    <vehicle id="2.62" depart="446.40" color="yellow">
        <route edges="817909960#5 -817085858 32577828#0 32577828#1"/>
    </vehicle>
    <vehicle id="3.62" depart="446.40" color="green">
        <route edges="409101012#5 -817085858 32577828#0 32577828#1"/>
    </vehicle>
    <vehicle id="1.63" depart="453.60" color="red">
        <route edges="615787306#8 615787306#9 32577828#0 32577828#1"/>
    </vehicle>
    <vehicle id="2.63" depart="453.60" color="yellow">
        <route edges="817909960#5 -817085858 32577828#0 32577828#1"/>
    </vehicle>
    <vehicle id="3.63" depart="453.60" color="green">
        <route edges="409101012#5 -817085858 32577828#0 32577828#1"/>
    </vehicle>
    <vehicle id="1.64" depart="460.80" color="red">
        <route edges="615787306#8 615787306#9 32577828#0 32577828#1"/>
    </vehicle>
    <vehicle id="2.64" depart="460.80" color="yellow">
        <route edges="817909960#5 -817085858 32577828#0 32577828#1"/>
    </vehicle>
    <vehicle id="3.64" depart="460.80" color="green">
        <route edges="409101012#5 -817085858 32577828#0 32577828#1"/>
    </vehicle>
    <vehicle id="1.65" depart="468.00" color="red">
        <route edges="615787306#8 615787306#9 32577828#0 32577828#1"/>
    </vehicle>
    <vehicle id="2.65" depart="468.00" color="yellow">
        <route edges="817909960#5 -817085858 32577828#0 32577828#1"/>
    </vehicle>
    <vehicle id="3.65" depart="468.00" color="green">
        <route edges="409101012#5 -817085858 32577828#0 32577828#1"/>
    </vehicle>
    <vehicle id="1.66" depart="475.20" color="red">
        <route edges="615787306#8 615787306#9 32577828#0 32577828#1"/>
    </vehicle>
    <vehicle id="2.66" depart="475.20" color="yellow">
        <route edges="817909960#5 -817085858 32577828#0 32577828#1"/>
    </vehicle>
    <vehicle id="3.66" depart="475.20" color="green">
        <route edges="409101012#5 -817085858 32577828#0 32577828#1"/>
    </vehicle>
    <vehicle id="1.67" depart="482.40" color="red">
        <route edges="615787306#8 615787306#9 32577828#0 32577828#1"/>
    </vehicle>
    <vehicle id="2.67" depart="482.40" color="yellow">
        <route edges="817909960#5 -817085858 32577828#0 32577828#1"/>
    </vehicle>
    <vehicle id="3.67" depart="482.40" color="green">
        <route edges="409101012#5 -817085858 32577828#0 32577828#1"/>
    </vehicle>
    <vehicle id="1.68" depart="489.60" color="red">
        <route edges="615787306#8 615787306#9 32577828#0 32577828#1"/>
    </vehicle>
    <vehicle id="2.68" depart="489.60" color="yellow">
        <route edges="817909960#5 -817085858 32577828#0 32577828#1"/>
    </vehicle>
    <vehicle id="3.68" depart="489.60" color="green">
        <route edges="409101012#5 -817085858 32577828#0 32577828#1"/>
    </vehicle>
    <vehicle id="1.69" depart="496.80" color="red">
        <route edges="615787306#8 615787306#9 32577828#0 32577828#1"/>
    </vehicle>
    <vehicle id="2.69" depart="496.80" color="yellow">
        <route edges="817909960#5 -817085858 32577828#0 32577828#1"/>
    </vehicle>
    <vehicle id="3.69" depart="496.80" color="green">
        <route edges="409101012#5 -817085858 32577828#0 32577828#1"/>
    </vehicle>
    <vehicle id="1.70" depart="504.00" color="red">
        <route edges="615787306#8 615787306#9 32577828#0 32577828#1"/>
    </vehicle>
    <vehicle id="2.70" depart="504.00" color="yellow">